<?xml version="1.0" encoding="UTF-8"?>

<!-- generated on 2026-03-17 17:20:53 by Eclipse SUMO polyconvert Version 1.11.0
<configuration xmlns:xsi="http://www.w3.org/2001/XMLSchema-instance" xsi:noNamespaceSchemaLocation="http://sumo.dlr.de/xsd/polyconvertConfiguration.xsd">

    <input>
        <net-file value="osm.net.xml"/>
        <osm-files value="osm_bbox.osm.xml"/>
        <osm.keep-full-type value="true"/>
        <type-file value="/usr/local/share/sumo/data/typemap/osmPolyconvert.typ.xml"/>
    </input>

    <output>
        <output-file value="osm.poly.xml"/>
    </output>

    <processing>
        <poi-layer-offset value="5"/>
    </processing>

    <report>
        <verbose value="true"/>
    </report>

</configuration>
-->

<additional xmlns:xsi="http://www.w3.org/2001/XMLSchema-instance" xsi:noNamespaceSchemaLocation="http://sumo.dlr.de/xsd/additional_file.xsd">
    <location netOffset="-712063.69,-5485554.03" convBoundary="-28674.70,-2400.57,12609.82,10678.74" origBoundary="5.533544,49.462146,6.108007,49.576978" projParameter="+proj=utm +zone=31 +ellps=WGS84 +datum=WGS84 +units=m +no_defs"/>

    <poly id="1005227328" type="landuse.residential" color="235,235,227" fill="1" layer="-3.00" shape="3162.219977,2269.217407 3224.467862,2269.928364 3225.614288,2230.998734 3228.371389,2228.925682 3258.621025,2239.672488 3259.578609,2236.904930 3260.640170,2234.074684 3199.699795,2213.832911 3183.998081,2216.363215 3181.775045,2220.884269 3170.746402,2215.784166 3168.763783,2220.459441 3166.521817,2219.402369 3147.183062,2262.445026 3146.807958,2263.131560 3162.219977,2269.217407"/>
    <poly id="1005227328#1" type="leisure.park" color="207,245,201" fill="1" layer="-2.00" shape="3162.219977,2269.217407 3224.467862,2269.928364 3225.614288,2230.998734 3228.371389,2228.925682 3258.621025,2239.672488 3259.578609,2236.904930 3260.640170,2234.074684 3199.699795,2213.832911 3183.998081,2216.363215 3181.775045,2220.884269 3170.746402,2215.784166 3168.763783,2220.459441 3166.521817,2219.402369 3147.183062,2262.445026 3146.807958,2263.131560 3162.219977,2269.217407"/>
    <poly id="1005275237" type="building.yes" color="255,230,230" fill="1" layer="-1.00" shape="2028.098795,2699.729260 2027.290966,2702.024181 2029.958387,2702.952782 2030.758980,2700.657576 2028.098795,2699.729260"/>
    <poly id="1005275242" type="landuse.grass" color="194,194,130" fill="1" layer="-3.00" shape="2046.065270,2627.329025 2045.874698,2621.109682 2046.961078,2616.153942 2049.205607,2611.611078 2052.482434,2607.732190 2056.436022,2604.525574 2059.252743,2602.209404 2062.669287,2600.863057 2062.958057,2605.505466 2057.746420,2606.413905 2053.354119,2609.347237 2050.550072,2612.632422 2048.484060,2617.059845 2047.711721,2621.771880 2047.972360,2627.314903 2046.065270,2627.329025"/>
    <poly id="1005275245" type="man_made.embankment" color="255,230,230" fill="0" layer="-1.00" shape="3194.946805,2774.779442 3230.198785,2783.052125 3253.997723,2783.602899 3298.631904,2775.870844"/>
    <poly id="1005275246" type="man_made.embankment" color="255,230,230" fill="0" layer="-1.00" shape="3030.973758,2771.409940 3040.482511,2774.401453 3074.868943,2772.653094 3085.646885,2777.832241 3134.611761,2781.213121 3152.088557,2774.444614 3165.976564,2772.276850"/>
    <poly id="1005275247" type="man_made.embankment" color="255,230,230" fill="0" layer="-1.00" shape="3065.579148,2791.289482 3088.580421,2787.254849 3103.160665,2789.767651 3112.743381,2788.498465 3124.741193,2784.997981"/>
    <poly id="1005275248" type="man_made.embankment" color="255,230,230" fill="0" layer="-1.00" shape="3147.177277,2782.978519 3175.792934,2782.160650 3195.810437,2787.415572 3213.206169,2790.039902"/>
    <poly id="1005275249" type="man_made.embankment" color="255,230,230" fill="0" layer="-1.00" shape="3109.398031,2794.277715 3115.865586,2794.243682 3151.795616,2791.588245 3162.561333,2792.302930 3179.012344,2796.637640 3195.453112,2798.845685 3214.466099,2797.414881 3216.752763,2798.618480 3216.522362,2805.734191 3219.034085,2810.965524 3222.931595,2814.514939"/>
    <poly id="1005275250" type="man_made.embankment" color="255,230,230" fill="0" layer="-1.00" shape="3270.749442,2834.439216 3234.138302,2824.798900 3191.235641,2809.633468 3166.252185,2804.572031 3071.188973,2799.392786 3056.528620,2801.296508 3042.986795,2807.185330 3031.617833,2816.611035"/>
    <poly id="1005275252" type="building.yes" color="255,230,230" fill="1" layer="-1.00" shape="2980.033299,2445.009775 2981.089174,2436.624154 2977.417600,2436.156423 2976.361292,2444.553160 2980.033299,2445.009775"/>
    <poly id="1005275254" type="waterway.ditch" color="181,209,209" fill="0" layer="-4.00" shape="3020.796824,2474.783754 3029.173822,2385.976576"/>
    <poly id="1005275255" type="waterway.ditch" color="181,209,209" fill="0" layer="-4.00" shape="3221.069462,2455.595748 3239.904967,2431.714785 3241.450761,2419.563489 3243.646596,2378.849574"/>
    <poly id="1005275266" type="building.yes" color="255,230,230" fill="1" layer="-1.00" shape="2759.701137,1996.543236 2760.080550,1986.917498 2756.779618,1986.787388 2756.400210,1996.413126 2759.701137,1996.543236"/>
    <poly id="1005275267" type="landuse.recreation_ground" color="194,194,130" fill="1" layer="-3.00" shape="2814.172797,2086.058055 2755.019628,2104.276592 2755.746301,1972.352414 2765.808512,1971.090297 2763.210848,1950.726864 2771.098372,1949.824333 2814.172797,2086.058055"/>
    <poly id="1005275269" type="landuse.village_green" color="242,242,204" fill="1" layer="-3.00" shape="2908.233944,2255.162513 2910.840017,2254.341321 2930.789674,2183.635605 2907.837686,2171.475269 2906.592801,2178.406218 2890.790531,2182.202496 2894.337393,2197.048380 2896.048957,2204.385390 2899.080030,2216.683865 2908.233944,2255.162513"/>
    <poly id="1005280619" type="amenity.parking" color="184,184,179" fill="1" layer="-1.00" shape="3017.980948,1810.041319 3018.989487,1798.815056 3012.761623,1798.257589 3011.753098,1809.483853 3017.980948,1810.041319"/>
    <poly id="1005280620" type="amenity.parking" color="184,184,179" fill="1" layer="-1.00" shape="3045.940130,1890.830973 3060.255417,1897.730365 3065.007284,1887.920958 3063.733873,1887.302939 3060.923592,1885.945177 3065.241345,1877.031499 3055.009713,1872.107868 3045.940130,1890.830973"/>
    <poly id="1005280622" type="amenity.parking" color="184,184,179" fill="1" layer="-1.00" shape="3028.697990,1845.475872 3035.311664,1845.992924 3036.215381,1834.484213 3029.601693,1833.967160 3028.697990,1845.475872"/>
    <poly id="1005287054" type="amenity.parking" color="184,184,179" fill="1" layer="-1.00" shape="2898.408196,1710.932024 2901.932322,1715.334740 2910.331387,1708.641420 2916.612886,1716.481504 2920.669838,1713.257253 2914.236529,1705.221924 2910.381174,1708.298277 2907.001621,1704.090509 2898.408196,1710.932024"/>
    <poly id="1005296149" type="amenity.parking" color="184,184,179" fill="1" layer="-1.00" shape="3522.909270,2805.680421 3531.772504,2808.491414 3523.719535,2815.798585 3518.453106,2823.583392 3513.045774,2841.159285 3505.692811,2839.020362 3511.117748,2820.632483 3516.177387,2812.394185 3522.909270,2805.680421"/>
    <poly id="1005336410" type="landuse.village_green" color="242,242,204" fill="1" layer="-3.00" shape="3075.742067,1979.831427 3076.113459,1976.116705 3078.538507,1973.273457 3079.926399,1974.664142 3082.830526,1973.643270 3085.877670,1974.142063 3088.304012,1976.041308 3095.346754,1984.969278 3097.798059,1991.378171 3097.785280,1998.313206 3095.352307,2004.662867 3090.770719,2009.792192 3074.930928,2020.399577 3068.626947,2030.593003 3064.878756,2033.161376 3058.759084,2034.277980 3057.296623,2032.205275 3034.539512,2047.426894 3029.370748,2038.595226 3031.876461,2032.972025 3039.751665,2037.891687 3090.732811,2003.957272 3093.495690,1998.433306 3093.934237,1992.283221 3091.065258,1986.904295 3088.858287,1984.223301 3086.504550,1983.607157 3083.554141,1984.882247 3080.342262,1984.699794 3077.548930,1983.097774 3075.742067,1979.831427"/>
    <poly id="1005384053" type="natural.scrub" color="140,196,107" fill="1" layer="-4.00" shape="2780.994150,2982.849725 2778.765262,2991.946118 3109.794891,3106.727301 3153.826892,3124.074303 3193.122565,3140.755844 3291.244032,3186.514165 3296.271246,3184.764693 3299.574971,3168.853297 3095.119361,3084.806690 2989.906102,3051.151540 2941.006606,3032.033036 2780.994150,2982.849725"/>
    <poly id="1005404879" type="building.yes" color="255,230,230" fill="1" layer="-1.00" shape="1909.521782,2470.543427 1912.901564,2480.472594 1916.428276,2479.275200 1913.055737,2469.346314 1909.521782,2470.543427"/>
    <poly id="1005535587" type="landuse.brownfield" color="194,194,130" fill="1" layer="-3.00" shape="2874.207747,1181.286767 2871.515100,1229.718033 2871.997774,1234.579674 2881.684207,1232.768505 2887.977344,1231.135261 2896.040252,1228.202518 2899.182887,1230.152160 2936.397810,1198.478472 2948.532493,1189.383159 2946.084529,1183.609061 2956.286550,1178.656736 2965.409194,1174.229609 3012.102051,1151.569026 3020.966325,1146.341387 3046.408423,1125.091447 3047.449835,1122.037715 3047.167426,1119.454973 3046.035305,1117.272869 3039.761384,1112.717055 3032.609290,1111.855973 3026.814197,1112.807368 2999.938426,1127.388162 3003.891913,1135.437038 2939.382827,1162.137436 2874.207747,1181.286767"/>
    <poly id="1005535587#1" type="natural.scrub" color="140,196,107" fill="1" layer="-4.00" shape="2874.207747,1181.286767 2871.515100,1229.718033 2871.997774,1234.579674 2881.684207,1232.768505 2887.977344,1231.135261 2896.040252,1228.202518 2899.182887,1230.152160 2936.397810,1198.478472 2948.532493,1189.383159 2946.084529,1183.609061 2956.286550,1178.656736 2965.409194,1174.229609 3012.102051,1151.569026 3020.966325,1146.341387 3046.408423,1125.091447 3047.449835,1122.037715 3047.167426,1119.454973 3046.035305,1117.272869 3039.761384,1112.717055 3032.609290,1111.855973 3026.814197,1112.807368 2999.938426,1127.388162 3003.891913,1135.437038 2939.382827,1162.137436 2874.207747,1181.286767"/>
    <poly id="1005535588" type="building.yes" color="255,230,230" fill="1" layer="-1.00" shape="2941.472078,1191.164196 2947.019317,1188.588737 2945.147757,1184.562902 2939.600515,1187.138364 2941.472078,1191.164196"/>
    <poly id="1005535590" type="landuse.grass" color="194,194,130" fill="1" layer="-3.00" shape="2913.063288,1035.191572 2896.429701,1037.185211 2887.613890,1047.068323 2912.677600,1045.340281 2913.063288,1035.191572"/>
    <poly id="1005535591" type="landuse.brownfield" color="194,194,130" fill="1" layer="-3.00" shape="3094.623877,958.404106 3088.880679,964.467296 3097.549737,969.340331 3097.226098,985.625485 3094.670890,998.004135 3100.556146,1003.591118 3086.176583,1030.231364 3066.793368,1058.533309 3060.565112,1059.066811 3058.378659,1050.341745 3058.102001,1062.865978 3063.403144,1066.348105 3068.869709,1070.048283 3080.729587,1063.703238 3085.406861,1058.555373 3101.488876,1029.933945 3117.782544,1000.730888 3131.273594,984.297511 3148.319257,970.954583 3222.136158,940.015130 3236.178482,932.587663 3251.370842,918.258979 3314.881810,829.013604 3309.465087,828.454519 3302.711995,835.657658 3299.967263,833.178017 3279.388836,867.644035 3254.686768,853.943989 3248.920937,873.977399 3249.925365,890.593334 3234.622933,912.298515 3195.600493,935.293634 3160.510721,948.135590 3131.724600,970.299535 3104.161616,969.011256 3094.623877,958.404106"/>
    <poly id="1005535591#1" type="natural.scrub" color="140,196,107" fill="1" layer="-4.00" shape="3094.623877,958.404106 3088.880679,964.467296 3097.549737,969.340331 3097.226098,985.625485 3094.670890,998.004135 3100.556146,1003.591118 3086.176583,1030.231364 3066.793368,1058.533309 3060.565112,1059.066811 3058.378659,1050.341745 3058.102001,1062.865978 3063.403144,1066.348105 3068.869709,1070.048283 3080.729587,1063.703238 3085.406861,1058.555373 3101.488876,1029.933945 3117.782544,1000.730888 3131.273594,984.297511 3148.319257,970.954583 3222.136158,940.015130 3236.178482,932.587663 3251.370842,918.258979 3314.881810,829.013604 3309.465087,828.454519 3302.711995,835.657658 3299.967263,833.178017 3279.388836,867.644035 3254.686768,853.943989 3248.920937,873.977399 3249.925365,890.593334 3234.622933,912.298515 3195.600493,935.293634 3160.510721,948.135590 3131.724600,970.299535 3104.161616,969.011256 3094.623877,958.404106"/>
    <poly id="1005535592" type="landuse.grass" color="194,194,130" fill="1" layer="-3.00" shape="3058.378659,1050.341745 3058.102001,1062.865978 3063.403144,1066.348105 3068.869709,1070.048283 3065.982236,1071.003055 3062.964868,1071.206829 3060.008041,1070.611456 3057.321277,1069.236336 3055.095674,1067.200335 3053.593636,1064.836647 3052.734206,1062.175474 3052.561488,1059.385544 3053.097426,1056.645842 3054.299679,1054.110550 3056.102872,1051.966343 3058.378659,1050.341745"/>
    <poly id="1005606316" type="historic.roman_road" color="128,255,128" fill="0" layer="-1.00" shape="5441.144940,1939.434378 5430.650577,1965.667534 5425.741783,1979.844106 5423.563453,1993.550733 5423.749609,2007.418512 5425.068474,2015.431102 5426.975053,2022.342732"/>
    <poly id="1005662452" type="landuse.grass" color="194,194,130" fill="1" layer="-3.00" shape="2146.852917,2385.509861 2149.141979,2385.555313 2178.927265,2359.262685 2206.022985,2340.167285 2301.363801,2253.510769 2315.423651,2240.727245 2288.864939,2258.496263 2218.613634,2324.175310 2190.321230,2348.812056 2177.373032,2358.043815 2152.432371,2380.229798 2142.059755,2380.746047 2146.852917,2385.509861"/>
    <poly id="100664840" type="landuse.meadow" color="194,194,130" fill="1" layer="-3.00" shape="4858.142219,1711.012144 4881.595609,1720.194938 4911.727172,1752.321056 4916.008851,1757.144986 4924.420216,1760.775130 4931.957535,1761.954685 4950.408962,1770.192769 4958.879454,1754.855132 4952.994075,1737.498645 4945.380330,1731.317420 4923.178132,1704.004396 4910.252547,1706.306431 4908.482770,1670.254991 4918.457712,1659.018361 4916.094566,1618.200755 4928.103618,1607.234364 4919.670977,1594.296422 4900.077748,1615.091728 4901.008485,1624.680658 4905.301678,1625.575175 4906.784670,1641.509480 4885.001968,1670.500424 4893.606425,1694.422029 4884.012707,1700.820001 4878.685702,1688.373108 4869.616188,1689.069747 4870.871160,1701.443624 4858.943352,1696.894333 4856.062076,1702.245834 4858.142219,1711.012144"/>
    <poly id="100664840#1" type="natural.wood" color="140,196,107" fill="1" layer="-4.00" shape="4858.142219,1711.012144 4881.595609,1720.194938 4911.727172,1752.321056 4916.008851,1757.144986 4924.420216,1760.775130 4931.957535,1761.954685 4950.408962,1770.192769 4958.879454,1754.855132 4952.994075,1737.498645 4945.380330,1731.317420 4923.178132,1704.004396 4910.252547,1706.306431 4908.482770,1670.254991 4918.457712,1659.018361 4916.094566,1618.200755 4928.103618,1607.234364 4919.670977,1594.296422 4900.077748,1615.091728 4901.008485,1624.680658 4905.301678,1625.575175 4906.784670,1641.509480 4885.001968,1670.500424 4893.606425,1694.422029 4884.012707,1700.820001 4878.685702,1688.373108 4869.616188,1689.069747 4870.871160,1701.443624 4858.943352,1696.894333 4856.062076,1702.245834 4858.142219,1711.012144"/>
    <poly id="1026428002" type="landuse.brownfield" color="194,194,130" fill="1" layer="-3.00" shape="2102.722802,2655.048713 2134.105040,2603.581629 2080.149586,2605.412926 2074.294395,2602.221615 2067.195247,2602.276605 2062.958057,2605.505466 2063.146740,2611.034530 2062.558273,2613.649774 2062.917476,2627.568205 2065.692807,2632.208138 2068.463086,2634.209504 2102.722802,2655.048713"/>
    <poly id="1026428003" type="amenity.car_wash" color="237,199,199" fill="1" layer="-1.00" shape="1224.530464,1471.344840 1227.252846,1479.410899 1237.692847,1475.912009 1234.970913,1467.834829 1224.530464,1471.344840"/>
    <poly id="1026428003#1" type="building.roof" color="255,230,230" fill="1" layer="-1.00" shape="1224.530464,1471.344840 1227.252846,1479.410899 1237.692847,1475.912009 1234.970913,1467.834829 1224.530464,1471.344840"/>
    <poly id="1026428017" type="waterway.stream" color="181,209,209" fill="0" layer="-4.00" shape="2224.017879,2584.395609 2230.377523,2584.712504"/>
    <poly id="1026428018" type="waterway.stream" color="181,209,209" fill="0" layer="-4.00" shape="2199.407154,2582.169872 2224.017879,2584.395609"/>
    <poly id="1027683076" type="natural.scrub" color="140,196,107" fill="1" layer="-4.00" shape="2263.189229,3040.594148 2307.312121,3046.115075 2306.869951,3034.508847 2299.830010,3031.782726 2296.314541,3031.410630 2277.151064,3029.331931 2281.022556,3010.336516 2198.190903,2993.396726 2195.721981,2992.954530 2189.347178,3009.625065 2205.290516,3023.176756 2263.189229,3040.594148"/>
    <poly id="1027683077" type="landuse.industrial" color="209,209,204" fill="1" layer="-3.00" shape="2319.855605,2955.211610 2319.078731,2924.477879 2371.817195,2923.291460 2372.286273,2947.656498 2371.961591,2957.195326 2354.177975,2956.517702 2351.811285,2956.424563 2319.855605,2955.211610"/>
    <poly id="1027683078" type="natural.scrub" color="140,196,107" fill="1" layer="-4.00" shape="2324.330275,3015.947952 2317.579169,2963.693986 2329.598486,2959.435659 2331.913781,3003.755806 2328.683637,3017.132305 2324.330275,3015.947952"/>
    <poly id="1027683083" type="landuse.grass" color="194,194,130" fill="1" layer="-3.00" shape="2647.449741,3161.070363 2647.869656,3164.025879 2648.153985,3166.007528 2663.371942,3172.730151 2687.164762,3185.156660 2700.901188,3181.467807 2707.203014,3151.792180 2705.119479,3139.553400 2705.224020,3127.155962 2711.404573,3096.328913 2726.307227,3022.061757 2731.230788,2996.094582 2696.715436,2981.664462 2662.803699,2971.410765 2653.898031,3004.991493 2622.308526,3143.124873 2620.353856,3152.076263 2647.449741,3161.070363"/>
    <poly id="1027683085" type="building.retail" color="255,230,230" fill="1" layer="-1.00" shape="3007.576805,2665.173004 3040.384079,2659.554740 3045.538967,2668.719898 3047.445006,2665.978622 3044.319313,2663.806849 3045.976849,2660.933305 3049.514463,2662.219609 3050.743191,2660.475785 3041.896411,2657.053968 3043.892843,2652.022966 3071.611334,2655.032066 3068.814528,2673.724433 3058.856386,2672.563135 3059.875500,2666.213316 3052.700712,2662.857492 3052.151709,2663.726417 3053.033863,2664.150881 3050.688917,2668.277522 3047.247505,2674.286799 3033.851732,2675.550312 3017.539922,2679.248094 3009.624869,2678.301122 3007.576805,2665.173004"/>
    <poly id="1027683086" type="building.yes" color="255,230,230" fill="1" layer="-1.00" shape="3068.814528,2673.724433 3058.235722,2756.588993 3047.264388,2758.326684 3047.365951,2757.406696 3044.621692,2757.877246 3043.440930,2749.592584 3046.826737,2748.846783 3047.895650,2740.316959 3049.525266,2740.904522 3050.697475,2733.247111 3049.347936,2733.093640 3050.894369,2722.200315 3052.390203,2722.504284 3053.675158,2714.561880 3052.027104,2714.441153 3053.517174,2703.690325 3055.163476,2703.855513 3056.668874,2695.287260 3055.751409,2695.206509 3057.072794,2686.341546 3058.766256,2686.597656 3060.077353,2676.708098 3058.382132,2676.496448 3058.856386,2672.563135 3068.814528,2673.724433"/>
    <poly id="1027683087" type="building.yes" color="255,230,230" fill="1" layer="-1.00" shape="3011.751370,2702.665020 3009.500470,2684.942308 3017.214621,2683.632588 3017.514436,2685.403356 3049.089601,2680.693912 3051.699228,2696.671876 3011.751370,2702.665020"/>
    <poly id="1027683088" type="building.yes" color="255,230,230" fill="1" layer="-1.00" shape="3015.311201,2722.487780 3012.253845,2704.811160 3019.965337,2703.568135 3020.340161,2705.275069 3041.095555,2702.131223 3040.868567,2700.352195 3052.282844,2698.598574 3049.569461,2717.015927 3015.311201,2722.487780"/>
    <poly id="1027683089" type="building.yes" color="255,230,230" fill="1" layer="-1.00" shape="3046.767011,2737.689663 3048.634605,2721.966379 3023.502962,2725.972764 3022.860344,2723.520514 3016.851326,2724.608084 3019.493024,2741.611485 3046.767011,2737.689663"/>
    <poly id="1027683090" type="building.yes" color="255,230,230" fill="1" layer="-1.00" shape="3044.621692,2757.877246 3044.758763,2758.628535 3021.703465,2762.193660 3018.903653,2745.339870 3026.164804,2744.301731 3026.741180,2746.595512 3042.463009,2744.065657 3043.440930,2749.592584 3044.621692,2757.877246"/>
    <poly id="1027683091" type="building.apartments" color="255,230,230" fill="1" layer="-1.00" shape="2882.891068,2620.844087 2889.370895,2573.641972 2903.671668,2575.352766 2898.532935,2608.035370 2928.051983,2610.981164 2925.970862,2624.592001 2882.891068,2620.844087"/>
    <poly id="1027683092" type="building.apartments" color="255,230,230" fill="1" layer="-1.00" shape="2932.480481,2579.951557 2929.354540,2603.874373 2915.299506,2602.551705 2918.460906,2577.728553 2932.480481,2579.951557"/>
    <poly id="1027683101" type="natural.scrub" color="140,196,107" fill="1" layer="-4.00" shape="3293.050343,2493.206844 3301.990534,2475.926250 3306.775759,2462.889932 3307.989389,2450.892504 3307.749892,2434.573887 3301.858697,2419.646122 3294.120100,2414.041206 3288.554755,2416.916109 3286.447048,2421.820186 3289.096416,2440.449405 3281.830054,2452.797663 3278.310164,2463.535040 3280.594543,2490.666213 3290.684509,2493.636574 3293.050343,2493.206844"/>
    <poly id="1027683103" type="landuse.grass" color="194,194,130" fill="1" layer="-3.00" shape="3270.540879,2524.935595 3275.583777,2506.476767 3310.435200,2514.288723 3305.760163,2534.075704 3294.973347,2532.781046 3275.467302,2528.136056 3270.540879,2524.935595"/>
    <poly id="1027683103#1" type="natural.scrub" color="140,196,107" fill="1" layer="-4.00" shape="3270.540879,2524.935595 3275.583777,2506.476767 3310.435200,2514.288723 3305.760163,2534.075704 3294.973347,2532.781046 3275.467302,2528.136056 3270.540879,2524.935595"/>
    <poly id="1027683104" type="landuse.grass" color="194,194,130" fill="1" layer="-3.00" shape="3293.008590,2610.742414 3308.184678,2542.799240 3310.700613,2540.772367 3336.142281,2546.375730 3319.089896,2617.395192 3293.008590,2610.742414"/>
    <poly id="1027683104#1" type="natural.scrub" color="140,196,107" fill="1" layer="-4.00" shape="3293.008590,2610.742414 3308.184678,2542.799240 3310.700613,2540.772367 3336.142281,2546.375730 3319.089896,2617.395192 3293.008590,2610.742414"/>
    <poly id="1027683105" type="building.apartments" color="255,230,230" fill="1" layer="-1.00" shape="3282.977514,2654.163602 3309.878763,2656.206490 3317.363089,2624.217974 3291.514731,2617.908384 3282.977514,2654.163602"/>
    <poly id="1027683105#1" type="landuse.construction" color="194,194,130" fill="1" layer="-3.00" shape="3282.977514,2654.163602 3309.878763,2656.206490 3317.363089,2624.217974 3291.514731,2617.908384 3282.977514,2654.163602"/>
    <poly id="1027683106" type="natural.scrub" color="140,196,107" fill="1" layer="-4.00" shape="3331.511842,2474.065024 3331.904105,2469.093155 3339.529444,2466.923148 3343.928919,2457.779127 3343.822647,2445.428948 3345.233638,2428.440818 3347.741882,2417.073460 3348.334584,2405.930960 3350.781552,2388.961518 3337.094684,2388.030856 3331.616472,2385.398561 3329.325743,2394.748402 3328.280992,2409.992069 3331.441188,2415.694377 3330.548216,2434.617778 3329.671727,2445.604338 3318.576434,2454.127474 3316.769225,2458.765104 3320.482374,2464.233214 3325.335820,2466.896472 3324.668386,2470.209849 3327.543747,2473.763454 3331.511842,2474.065024"/>
    <poly id="1027683107" type="building.apartments" color="255,230,230" fill="1" layer="-1.00" shape="3346.906877,2661.744687 3354.030320,2630.821797 3342.393527,2626.643499 3335.594122,2626.630762 3327.424737,2658.158012 3332.082388,2660.268054 3346.906877,2661.744687"/>
    <poly id="1028351119" type="waterway.ditch" color="181,209,209" fill="0" layer="-4.00" shape="683.304668,2214.861796 524.937449,2371.366756"/>
    <poly id="1028351122" type="waterway.ditch" color="181,209,209" fill="0" layer="-4.00" shape="658.224077,2191.017296 500.727003,2346.777665"/>
    <poly id="1028426821" type="building.shed" color="255,230,230" fill="1" layer="-1.00" shape="3991.915112,874.982501 3996.129775,871.653891 3999.686798,876.136562 3998.848121,876.804679 3995.472135,879.465170 3991.915112,874.982501"/>
    <poly id="1028482959" type="amenity.parking" color="184,184,179" fill="1" layer="-1.00" shape="3058.198772,1155.970572 3105.891865,1176.510806 3119.283654,1183.340372 3140.915582,1196.896431 3137.368009,1204.103820 3125.700938,1197.854379 3108.892140,1188.863812 3100.581513,1184.472443 3065.137738,1169.581085 3047.631339,1162.277590 3058.198772,1155.970572"/>
    <poly id="1028482965" type="building.silo" color="255,230,230" fill="1" layer="-1.00" shape="2769.093091,1103.112781 2767.847028,1101.427212 2767.820773,1099.333282 2769.040712,1097.633566 2771.024878,1096.965884 2773.030635,1097.590415 2774.284375,1099.265156 2774.303387,1101.358800 2773.090249,1103.069916 2771.098845,1103.737311 2769.093091,1103.112781"/>
    <poly id="1030632081" type="building.yes" color="255,230,230" fill="1" layer="-1.00" shape="2823.702462,2353.679495 2814.263094,2351.848931 2816.480699,2340.469944 2818.545853,2340.863085 2817.998908,2343.702560 2818.746882,2343.854510 2818.073178,2347.334669 2821.771367,2348.048251 2821.672460,2348.534179 2824.593283,2349.105786 2823.702462,2353.679495"/>
    <poly id="1030632088" type="landuse.grass" color="194,194,130" fill="1" layer="-3.00" shape="2234.826242,2334.620461 2247.947863,2317.480528 2281.876767,2287.789001 2284.451192,2290.717885 2234.826242,2334.620461"/>
    <poly id="1030632090" type="landuse.grass" color="194,194,130" fill="1" layer="-3.00" shape="2218.106903,2349.414740 2205.406319,2355.850814 2175.882142,2382.320559 2178.333899,2384.866069 2201.924112,2363.840528 2218.106903,2349.414740"/>
    <poly id="1030632092" type="amenity.parking" color="184,184,179" fill="1" layer="-1.00" shape="2320.220004,2263.470140 2316.383394,2266.825913 2326.875856,2278.749570 2330.712466,2275.393805 2320.220004,2263.470140"/>
    <poly id="1033470174" type="amenity.parking" color="184,184,179" fill="1" layer="-1.00" shape="4770.569603,1051.043130 4771.156310,1056.165241 4761.540450,1057.263442 4760.946494,1052.141044 4770.569603,1051.043130"/>
    <poly id="1033470178" type="amenity.parking" color="184,184,179" fill="1" layer="-1.00" shape="4817.776935,994.741414 4800.045427,996.407326 4799.489241,990.518269 4817.213528,988.852066 4817.776935,994.741414"/>
    <poly id="1033470179" type="natural.scrub" color="140,196,107" fill="1" layer="-4.00" shape="4796.288124,980.204516 4812.510330,968.537044 4822.439360,963.399075 4826.124409,963.734930 4828.559142,965.969270 4834.049020,979.268604 4832.511062,986.209890 4828.419337,991.357407 4822.060753,994.243869 4817.776935,994.741414 4817.213528,988.852066 4799.489241,990.518269 4796.288124,980.204516"/>
    <poly id="1033470180" type="building.yes" color="255,230,230" fill="1" layer="-1.00" shape="4776.857165,992.690685 4771.033107,993.260598 4770.667143,989.516589 4776.490763,988.957791 4776.857165,992.690685"/>
    <poly id="1033470181" type="natural.scrub" color="140,196,107" fill="1" layer="-4.00" shape="4770.667143,989.516589 4768.778164,977.206627 4778.104104,984.312829 4780.100367,981.709248 4781.510239,982.544613 4780.815186,985.433735 4781.461929,992.328334 4776.857165,992.690685 4776.490763,988.957791 4770.667143,989.516589"/>
    <poly id="1033470182" type="natural.cliff" color="140,196,107" fill="0" layer="-4.00" shape="5381.569996,1477.517548 5378.484444,1475.613217 5377.228414,1477.288697"/>
    <poly id="1034740793" type="building.yes" color="255,230,230" fill="1" layer="-1.00" shape="4200.221512,2076.147018 4206.501068,2087.818297 4215.641957,2082.926434 4209.362413,2071.255144 4200.221512,2076.147018"/>
    <poly id="1034740794" type="building.yes" color="255,230,230" fill="1" layer="-1.00" shape="4206.404846,2065.760713 4197.263940,2070.652591 4200.221512,2076.147018 4209.362413,2071.255144 4206.404846,2065.760713"/>
    <poly id="1034740795" type="building.yes" color="255,230,230" fill="1" layer="-1.00" shape="4194.171287,2064.907889 4197.263940,2070.652591 4206.404846,2065.760713 4203.312200,2060.016005 4194.171287,2064.907889"/>
    <poly id="1034740796" type="building.yes" color="255,230,230" fill="1" layer="-1.00" shape="4190.997937,2059.004129 4194.171287,2064.907889 4203.312200,2060.016005 4200.412867,2053.967256 4190.997937,2059.004129"/>
    <poly id="1034740797" type="building.yes" color="255,230,230" fill="1" layer="-1.00" shape="4187.810542,2053.088682 4190.997937,2059.004129 4200.412867,2053.967256 4201.072121,2053.614906 4197.884733,2047.699453 4187.810542,2053.088682"/>
    <poly id="1034740798" type="building.yes" color="255,230,230" fill="1" layer="-1.00" shape="4182.597020,2043.419073 4187.810542,2053.088682 4197.884733,2047.699453 4192.678902,2038.019006 4182.597020,2043.419073"/>
    <poly id="1034740799" type="building.yes" color="255,230,230" fill="1" layer="-1.00" shape="4182.597020,2043.419073 4192.678902,2038.019006 4194.323421,2037.137987 4190.575763,2030.176105 4180.354567,2035.615179 4179.700224,2037.671020 4182.597020,2043.419073"/>
    <poly id="1037319979" type="building.roof" color="255,230,230" fill="1" layer="-1.00" shape="993.106674,2078.394500 987.276737,2080.092460 988.639120,2084.743317 994.469053,2083.045359 993.106674,2078.394500"/>
    <poly id="1037319980" type="building.roof" color="255,230,230" fill="1" layer="-1.00" shape="996.134974,2075.295683 995.227011,2072.187700 990.012939,2073.709354 990.921339,2076.806221 996.134974,2075.295683"/>
    <poly id="1037319981" type="building.roof" color="255,230,230" fill="1" layer="-1.00" shape="985.574582,2057.984167 990.923892,2056.156093 992.563525,2060.762128 991.721205,2061.909212 987.197291,2061.910475 986.383819,2061.021495 985.574582,2057.984167"/>