<?xml version="1.0" encoding="UTF-8"?>

<!-- generated on 2026-03-17 17:41:04 by Eclipse SUMO duarouter Version 1.11.0
<configuration xmlns:xsi="http://www.w3.org/2001/XMLSchema-instance" xsi:noNamespaceSchemaLocation="http://sumo.dlr.de/xsd/duarouterConfiguration.xsd">

    <input>
        <net-file value="Esch-Belval.net.xml"/>
        <route-files value="trips.trips.xml"/>
    </input>

    <output>
        <output-file value="Esch-Belval.rou.xml"/>
        <alternatives-output value="Esch-Belval.rou.alt.xml"/>
    </output>

    <time>
        <begin value="0"/>
        <end value="300"/>
    </time>

    <report>
        <no-warnings value="true"/>
        <ignore-errors value="true"/>
        <no-step-log value="true"/>
    </report>

</configuration>
-->

<routes xmlns:xsi="http://www.w3.org/2001/XMLSchema-instance" xsi:noNamespaceSchemaLocation="http://sumo.dlr.de/xsd/routes_file.xsd">
    <vehicle id="0" depart="0.00">
        <route edges="-84838694#8 1097273303 1097273302#0 1097273302#1 1097273310 96623204#3 96623204#7 -202799398 -572324669 -572324670 149851546#1 149851546#2 -149851550#4 -399621349#2 202799401#0 -44060596#8 -44060596#4 1028482930 149785324#1 525684718 26938111#0 88215685#0 88215684#0 625858772#0 625858772#3 1093662048 24686035#1 381767910#0 381767910#2 381767910#3 383605393#1 711292219 27016374 246717913 22902384#0 22902384#1 -24878812#6 -24878812#5 -24878835 -24878816#4 -24878816#2 -24878816#1 -24878816#0 24878816#0"/>
    </vehicle>
    <vehicle id="1" depart="1.00">
        <route edges="-28675203#2 -28675208#0 -794728912#2 794728914 794728915 -1352921105 -383605410 381767893 -25730227#10 -25730227#9 -25730227#7 -25730227#6 -25730227#5 -25730227#4 -25730227#3 -91905469#4 -91905469#0 -565170381#2 -565170381#1 26167487#0 751663268 -384318625#1 91905659 -384318628 29178098#4 29178098#2 29178090"/>
    </vehicle>
    <vehicle id="2" depart="2.00">
        <route edges="-24045429#0 24045465#0 24045467 1102303669 -24045203 24045012#0 24045012#6 71776682#0 389379325 1028485891 23978456#0 149871899#5 23978431#0 23978431#1 23978397#2 -262236770#3 -262236770#1 -381551785 -96202360#1 96202386#0 96202375#0 96260465#0 559726779 389381851 389381855 24685964#0 -1322622441 96623188 28023974#0"/>
    </vehicle>
    <vehicle id="3" depart="3.00">
        <route edges="24046156#0 24046156#1 24046156#2 -24046138 95787637#2 95787637#4 95787637#5 1065283774 -711292218#3 -711292218#0 -738191563 -244619759#1 -1104053946#5 -24045315#6 -24045315#5 -24045315#0 -1005275220 -1005281732#1 1105062421 -642213909#3 87053630#0 -1451933401#4 -24045602#1"/>
    </vehicle>
    <vehicle id="4" depart="4.00">
        <route edges="194714678#4 199317384 194714675 194714681 460537472 743124793 646044308 1168540452-AddedOnRampEdge 1168540452 1237562881 1237562882 1237562883 24837124 1237562871 1237562873#0 382224337#0 -382051984 -1103002121#21 -1103002121#17 -1103002121#16 1103002121#16"/>
    </vehicle>
    <vehicle id="5" depart="5.00">
        <route edges="102137774#0 345100282#0 345100282#1 -240395686#0 -1125497300#0 -244619756#2 -711292218#3 -711292218#0 -738191563 -244619759#1 -1104053946#5 -24045315#6 -24045315#5 -24045315#0 -1005275220 -1005281732#1 1105062421 1105062422#0 1104403337 96623212#0 -1104403351 1104403351 96623206#0"/>
    </vehicle>
    <vehicle id="6" depart="6.00">
        <route edges="-25691686#0 -25691683#0 223581247#4 223581247#7 1207256575 23019752#0 387488096 1083892019#0 1083892019#1 520948066#0 393248508 393248511#0 375371401 313843749#0 366838964 388280785 377213302 23888931 388280781 385079851 388040068 594713490 1193630677 806076778#0 1175947978 646048871 1168540452-AddedOnRampEdge 1168540452 1237562881 1237562882 1237562883 24837124 1237562871 1237562873#0 382224337#0 -382051984"/>
    </vehicle>
    <vehicle id="7" depart="7.00">
        <route edges="-26207811#1 -26207811#0 -28407587#1 493773589#2 -25482995#3 1103083192#0 223581247#2 223581247#4 223581247#7 1207256575 23019752#0 387488096 1083892019#0 1083892019#1 520948066#0 393248508 393248511#0 375371401 313843749#0 366838964 388280785 377213302 23888931 388280781 385079851 388040068 594713490 443202032 377213301 1119592518#0 1119592518#1 23019717 393248497#1 393248497#2 -25822399#8 -25822399#6 -25822399#5 -25822399#3 -25822399#1"/>
    </vehicle>
    <vehicle id="8" depart="8.00">
        <route edges="23978431#0 23978431#1 23978397#2 262236770#4 262236770#5 389379729#0 389379729#1 835570767#1 713094114#0 889989846 40586872#0 150995806 -713057045#1 -337572712#2 -337572712#1 -96623207#2 -96623207#1 711840351 -1103002119 -150258989#7 -150258989#5 150258992#0 150258992#1 150258991"/>
    </vehicle>
    <vehicle id="9" depart="9.00">
        <route edges="713094111 24045737#0 -24045315#5 -24045315#0 -1005275220 -1005281732#1 1105062421 1105062422#0 1104403337 1125497293#0 382420760 23019741 1451933404 393878678#0 96202384 388006867#0 1104403321#0 393248455#0 385079851 388040068 594713490 1193630677 806076778#0 1193630679 1193630680#1 1193630680#2 783015569#0 646048873 1165236029-AddedOnRampEdge 1165236029 1165236029-AddedOffRampEdge 483700624 1165236030#0 646044314#3 393764300#5"/>
    </vehicle>
    <vehicle id="10" depart="10.00">
        <route edges="373627226#0 405994028#0 23978009 23978162#1 23978162#3 382420761#0 1104403351 96623206#0 1125497295#0 -1105062422#3 -1105062421 1005275221 1005275220 24045315#0 24045315#1 24045315#6 1104053946#0 244619759#0 738191563 711292218#0 711292218#1 -1065283774 -95787637#6 -95787637#4 -95787637#3 -95787637#1 466424275#0 525684717#0 466424277#0 565170381#0 565170381#2 91905469#0"/>
    </vehicle>
    <vehicle id="11" depart="11.00">
        <route edges="-1154675893 218390407#0 385080086#0 377213300 23888931 388280781 385079851 388040068 594713490 1193630677 806076778#0 1175947978 646048871 1168540452-AddedOnRampEdge 1168540452 1237562881 1237562882 1237562883 24837124 1237562871 1237562873#0 382224337#0 382051979#0 244619759#0 738191563 711292218#0 711292218#1 -1065283774 -95787637#6 26167445#0 26167445#2 26167445#3 27826095#1"/>
    </vehicle>
    <vehicle id="12" depart="12.00">
        <route edges="389379325 1028485891 389379326#0 263842508#0 -44060596#8 -44060596#4 1028482930 149785324#1 525684718 26938111#0 88215685#0 88215684#0 625858772#0 625858772#3 1093662048 24045848#0 24045848#2 24045848#3 24045848#4"/>
    </vehicle>
    <vehicle id="13" depart="13.00">
        <route edges="-279252449 -24045848#1 24686035#1 381767910#0 381767910#2 381767910#3 383605393#1 711292219 525806379 383018950 525806373 27016369 1352921105 1352921103 642213851 246871761#0 27860272 27860295 1237548482 69353438 1237548496 1237548495 69353464 1465424328 646048872 783015569#0 783015569#3 783015569#4 783015571 -806076778#1 1193630678 377213301 1119592518#0 1119592518#1 23019717 393248497#1 393248497#2 251421193#0 251421193#1 393878673#0 440710544 84526771#0 1119592513 476707103 1119592515 520948066#0 393248508 393248511#0 375371401"/>
    </vehicle>
    <vehicle id="14" depart="14.00">
        <route edges="26149333 26149326#2 26149326#3 393248497#1 393248497#2 313843749#0 366838964 388280785 377213302 23888931 388280781 385079851 388040068 594713490 1193630677 806076778#0 1175947978 646048871 1168540452-AddedOnRampEdge 1168540452 1237562881 213577575 1237562870 98751217 1237562876 384321002 1237562877 525684705-AddedOnRampEdge 525684705 -642213851 -1352921103 -1352921105 -383605410 -525806373 -383018950 525806386 383018947 27016374 246717913 22902384#0 437971024#0 24878808#0 437970226#0 -437970226#0 -24878808#1"/>
    </vehicle>
    <vehicle id="15" depart="15.00">
        <route edges="24045855#0 24045855#1 24045855#2 381767910#2 381767910#3 383605393#1 711292219 525806379 383018950 525806373 27016369 1352921105 1352921103 642213851 246871761#0 27860272 27860295 1237548482 69353438 1237548496 1237548495 69353464 1465424328 646048872 783015569#0 783015569#3 783015569#4 783015571 -806076778#1 1193630678 377213301 1119592518#0 1119592518#1 23019717 -26149326#3 -26149326#2 -26149326#1"/>
    </vehicle>
    <vehicle id="16" depart="16.00">
        <route edges="-124523693#1 29979463#2 -363535496#1 -202799398 -572324669 -572324670 149851546#1 149851546#2 1028485897 96202377#0 96202360#1 23965140#0 262236770#1 262236770#3 262236770#4 262236770#5 389379729#0 389379729#1 835570767#1 713094114#0 889989846 40586872#0 150995806 -713057045#1 -337572712#2 -337572712#1 -96623207#2 -96623207#1 1105062421 1105062422#0 1104403337 1125497293#0 382420760 23019741 1451933404 393878678#0 96202384 388006867#0 1104403321#0 393248455#0 385079851 388040068 594713490 443202032 377213301 1119592518#0 1119592518#1 23019717 393248497#1 393248497#2 251421193#0 251421193#1 393878673#0 440710544 84526823#0 1119592517 387830973#0 387488093#0 -387749439#4"/>
    </vehicle>
    <vehicle id="17" depart="17.00">
        <route edges="24045864#0 24045867#3 25730227#4 25730227#5 25730227#6 25730227#7 25730227#8 25730227#10 591844424 565170430 27016369 1352921105 1352921103 642213851 246871761#0 27860272 27860295 1237548482 69353438 1237548496 1237548495 69353464 1465424328 646048872 783015569#0 783015569#3 783015569#4 783015571 -806076778#1 1193630678 377213301 1119592518#0 1119592518#1 23019717 393248497#1 393248497#2 251421193#0 251421193#1 393878673#0 440710544 84526771#0 1119592513 476707103 1119592515 520948066#0 393248508"/>
    </vehicle>
    <vehicle id="18" depart="18.00">
        <route edges="740008655#0 24045260#1 24045256#2 -73992062#4 -73992062#2 24045236#0 1028482925 26938113#0 26938113#1 44060596#0 44060596#5 -202799401#3 202799400 149851550#0 -149851546#5 -149851546#1 572324670 572324669 202799398 -96623204#7 -96623204#6 -96623204#2 -1097273316#1 -1097273302#0 -1097273303 84838694#0"/>
    </vehicle>
    <vehicle id="19" depart="19.00">
        <route edges="96260467 672774776#0 174128071#0 383805343 -383805343 -174128071#2 -672774776#2 -1166180793#1 -780648219#1 780648218 780648217 780648224 213852874 777936458 194714701 194714678#4 199317384 194714675 194714681 460537472 743124793 646044308 1168540452-AddedOnRampEdge 1168540452 1237562881 213577575 1237562870 98751217 1237562876 384321002 1237562877 525684705-AddedOnRampEdge 525684705 -642213851 -1352921103 -1352921105 -383605410 381767893 -25730227#10 -25730227#9 -25730227#7 -25730227#6 -25730227#5 -25730227#4 -25730227#3 1056524381#0 369936834#0"/>
    </vehicle>
    <vehicle id="21" depart="21.00">
        <route edges="-25379986 -25379982#0 -26206234#3 -26206234#0 376941298#2 -387488093#3 -387830973#3 84526820#0 476707103 1119592515 520948066#0 393248508 393248511#0 375371401 313843749#0 366838964 388280785 377213302 23888931 23019727 1005662451#0 -388211543#1 -388006867#2 -96202384 -393878678#4 -1451933404 73204670 388211552#0 388211553 382499809 393878683#0 96623212#0 -1104403351 24045352#0 24045356#0 24045356#1 24045356#2 642213879#1"/>
    </vehicle>
    <vehicle id="22" depart="22.00">
        <route edges="24045352#0 -24045352#1 1104403351 96623206#0 1125497293#0 382420760 23019741 1451933404 393878678#0 96202384 388006867#0 1104403321#0 393248455#0 385079851 388040068 594713490 443202032 377213301 1119592518#0 1119592518#1 23019717 393248497#1 393248497#2 251421193#0 251421193#1 393878673#0 440710544 84526823#0 1119592517 387830973#0 387488093#0 -376941298#4 26206234#0 26206234#1 25379982#0 25379986"/>
    </vehicle>
    <vehicle id="23" depart="23.00">
        <route edges="493773589#0 493773589#2 -25482995#3 1103083192#0 223581247#2 223581247#4 223581247#7 1207256575 23019752#0 387488096 1083892019#0 1083892019#1 520948066#0 393248508 393248511#0 375371401 313843749#0 366838964 388280785 377213302 23888931 23019727 1005662451#0 -388211543#1 -388006867#2 -96202384 1104403324#0 150258989#0 150258989#2 150258989#4 150258989#6 24045549#0 24045507#1 711840350 148623294#0 24045728#1"/>
    </vehicle>
    <vehicle id="24" depart="24.00">
        <route edges="96202361#0 149785321#0 149851548#0 202799399#0 -149851550#4 -399621349#2 202799401#0 -44060596#8 -44060596#4 1028482930 149785324#1 525684718 26938111#0 88215685#0 88215684#0 625858772#0 625858772#3 1093662048 24686035#1 381767910#0 381767910#2 381767910#3 383605393#1 711292219 27016374 246717913 22902384#0 22902384#1 -24878812#6 -24878812#5 -24878812#4 -24878812#2 -24878812#1"/>
    </vehicle>
    <vehicle id="25" depart="25.00">
        <route edges="1206241892#0 -387488093#3 -387830973#3 84526820#0 476707103 1119592515 520948066#0 1154675883#0 194714712 809062693 809062692 393878671 425555627 1093670813 69353439#0 69353439#3 69353439#7 663774150#0 1225004296 360827911#0 360827911#5 408845038#1 1055047383 155295647#6 377211621#0"/>
    </vehicle>
    <vehicle id="26" depart="26.00">
        <route edges="23965055#0 149871227#1 963231062 23978376 835570770#0 23964901#2 889989846 23978323#0 23978323#3 71776686 389379435#0 809579169 389379436#1 389379326#0 263842508#0 -44060596#8 -44060596#4 1028482930 149785324#1 71796216 -1028482925 -24045236#5 73992062#0 73992062#3 -954093104 -24045260#2 -24045260#0"/>
    </vehicle>
    <vehicle id="28" depart="28.00">
        <route edges="-23978162#4 23978162#3 382420761#0 1104403351 96623206#0 1125497295#0 -1105062422#3 -1105062421 1005275221 1005275220 24045315#0 24045315#1 24045315#6 1104053946#0 244619759#0 738191563 711292218#0 711292218#1 244619756#0 1125497300#0 1125497300#1 1125497298#0 625858772#0 625858772#3 1093662048 24686035#1 381767910#0 381767910#2 381767910#3 383605393#1 711292219 27016374 246717913 22902384#0 22902384#1 -24878812#6 -24878812#5 -24878812#4 -24878812#2 -24878812#1 -24878812#0"/>
    </vehicle>
    <vehicle id="29" depart="29.00">
        <route edges="-624055909 -24685804#1 -24685804#0 105450429#0 382489365 528939344 528942002 382489364 711234496 23025438#0 24432289#0 370069654#0 96623189 23978162#1 23978162#3 382420761#0 1104403351 96623206#0 1125497295#0 -1105062422#3 -1105062421 1005275221 1005275220 24045315#0 24045315#1 24045315#6 1104053946#0 244619759#0 738191563 711292218#0 711292218#1 -1065283774 -95787637#6 26167445#0 26167445#2 26167445#3 27826095#1 26167441#0"/>
    </vehicle>
    <!--<vehicle id="30" depart="30.00">
        <route edges="383018947 525806379 383018950 525806373 27016369 1352921105 1352921103 642213851 246871761#0 27860272 27860295 1237548482 69353438 1237548496 1237548495 69353464 1465424328 646048872 783015569#0 783015569#3 783015569#4 783015571 -806076778#1 1193630678 377213301 1119592518#0 1119592518#1 393878675 388280785 28242822#0 385525540 371436540#0 1154675893"/>
    </vehicle>
    <vehicle id="31" depart="31.00">
        <route edges="149788710#0 1137235965#0 28023904#3 23025426#1 835570757 711234496 23025438#0 1028482962#0 96623193#0 377211624 23025447 370069643 71786405 71780470 382499809 382499804 382420760 23019741 1451933404 393878678#0 96202384 388006867#0 1104403321#0 393248455#0 385079851 388040068 594713490 443202032 377213301 1119592518#0 1119592518#1 23019717 393248497#1 393248497#2 313843749#0 366838964"/>
    </vehicle>
    <vehicle id="32" depart="32.00">
        <route edges="-378064619#2 -155295647#9 -155295647#5 -408845038#2 -408845038#0 -360827911#4 1225004300#0 393764300#0 393764300#0-AddedOffRampEdge 1165236026#0 1165236026#2 1175947979#0-AddedOnRampEdge 1175947979#0 483700625 743124793 646044308 1168540452-AddedOnRampEdge 1168540452 1237562881 1237562882 1237562883 24837124 1237562871 1237562873#0 382224337#0 382051979#0 244619759#0 738191563 711292218#0 711292218#1 244619756#0 1125497300#0 1125497300#1 1125497298#0 625858772#0 -625858772#2"/>
    </vehicle>
    <vehicle id="33" depart="33.00">
        <route edges="-1206243596#1 -1363898705#2 1363898705#0 1206243596#0 393764300#0 393764300#0-AddedOffRampEdge 1165236026#0 1165236026#2 1175947979#0-AddedOnRampEdge 1175947979#0 483700625 743124793 646044308 1168540452-AddedOnRampEdge 1168540452 1237562881 1237562882 1237562883 24837124 1237562871 1237562873#0 382224337#0 382051979#0 244619759#0 738191563 711292218#0 1315578562#0 1102303676 263842503#0 83702045#0 -329138915#1 -24045222#2"/>
    </vehicle>
    <vehicle id="34" depart="34.00">
        <route edges="-24045236#5 -738191553#2 -83702045#1 -263842503#1 -1102303676 -1315578562#1 -711292218#0 -738191563 84527866#0 166902376 166902373#0 382051995#0 166902370#0 1104927217#0 89968628#0 381988711#0 381988711#3 1104114334 382224391 384688158 1005275244 1223177702#2 1223177702#4 25210189#0 152100999 594713490 443202032 377213301 1119592518#0 1119592518#1 23019717 393248497#1 393248497#2 251421193#0 251421193#1 393878673#0 440710544 84526771#0 1119592513 96202364#0 -1207256575 -223581247#7 -223581247#6 -223581247#2 -223581247#1 25482995#0 -493773589#2 28407587#0 26207811#0 26207811#1"/>
    </vehicle>
    <vehicle id="35" depart="35.00">
        <route edges="24878812#1 24878812#2 24878812#3 24878812#5 24878812#6 -22902384#4 -22902384#0 -381767864 381767862 525806379 383018950 525806373 27016369 1352921105 1352921103 642213851 246871761#0 27860272 27860295 1237548482 69353438 1237548496 1237548495 69353464 1465424328 646048872 783015569#0 783015569#3 783015569#4 783015571 -806076778#1 1193630678 377213301 1119592518#0 1119592518#1 23019717 393248497#1 393248497#2 251421193#0 251421193#1 393878673#0 440710544 84526771#0 84526822#0"/>
    </vehicle>
    <vehicle id="36" depart="36.00">
        <route edges="26938388#0 560106456#0 27826077#0 27826095#4 27826095#5 27826095#1 26167441#0 27826100 95787637#4 95787637#5 1065283774 -711292218#3 -711292218#0 -738191563 84527866#0 166902376 166902373#0 382051995#0 166902370#0 1104927217#0 89968628#0 381988711#0 381988711#3 1104114334 382224391 384688158 1005275244 1223177702#2 1223177702#4 25210189#0 152100999 594713490 443202032 377213301 1119592518#0 1119592518#1 23019717 393248497#1 393248497#2 251421193#0 251421193#1 393878673#0 440710544 84526771#0 1119592513 96202364#0 -1207256575 -223581247#7 -223581247#6 -223581247#2 -223581247#1 25482995#0 -493773589#2 28407587#0 26207811#0 -26207811#0"/>
    </vehicle>
    <vehicle id="37" depart="37.00">
        <route edges="26938045#2-AddedOffRampEdge 401224285 287258414#0 26938051#0 1093662050 -1125497298#4 -1125497300#1 -1125497300#0 -244619756#2 -711292218#3 -711292218#0 -738191563 84527866#0 166902376 166902373#0 382051995#0 166902370#0 1104927217#0 89968628#0 381988711#0 381988711#3 1104114334 382224391 24701143 24664933#0 24664802#0 24664843#0 -395155849#3 -395155849#0 -395155847 24769105 24769105-AddedOffRampEdge 91901895"/>
    </vehicle>
    <vehicle id="38" depart="38.00">
        <route edges="-642213879#1 24045356#3 24045356#4 24045356#6 -96623207#1 1005275221 1005275220 24045315#0 24045315#1 24045315#6 1104053946#0 244619759#0 738191563 711292218#0 711292218#1 -1065283774 -95787637#6 26167445#0 26167445#2 26167445#3 27826095#1 27826095#2 27826095#3 27826095#4 27550021#0 27444058#0 1065283782#2 -1065283784"/>
    </vehicle>
    <vehicle id="39" depart="39.00">
        <route edges="-71786407#3 71786409#0 364160052 528939342 377211624 23025447 370069643 71786405 71780470 382499809 393878683#0 1125497295#0 -1105062422#3 -1105062421 1005275221 1005275220 24045315#0 24045315#1 24045315#6 1104053946#0 244619759#0 738191563 711292218#0 711292218#1 244619756#0 1125497300#0 1125497300#1 1125497298#0 625858772#0 625858772#3 1093662048 24686035#1 381767910#0 381767910#2 381767910#3 383605393#1 711292219 27016374 246717913 22902384#0 437971024#0 -29979095#2 -29979095#0"/>
    </vehicle>
    <vehicle id="40" depart="40.00">
        <route edges="-24574357#3 -24574357#1 -387488093#3 -387830973#3 84526820#0 476707103 1119592515 520948066#0 393248508 393248511#0 375371401 313843749#0 366838964 388280785 377213302 23888931 23019727 1005662451#0 -388211543#1 -388006867#2 -96202384 -393878678#4 -1451933404 73204670 388211552#0 388211553 382499809 393878683#0 96623212#0 -1104403351 -382420761#2 -150258988#4 -150258988#2 -150258988#1 23978130#0 148559411#5 -148559411#6"/>
    </vehicle>
    <vehicle id="42" depart="42.00">
        <route edges="-26167441#1 27826095#2 27826095#3 27826095#4 27826095#5 27826095#1 26167441#0 27826100 95787637#4 95787637#5 1065283774 244619756#0 1125497300#0 1125497300#1 1125497298#0 625858772#0 625858772#3 1093662048 24686035#1 381767910#0 381767910#2 381767910#3 383605393#1 711292219 27016374 246717913 22902384#0 437971024#0 437971024#2 -24878802"/>
    </vehicle>
    <vehicle id="43" depart="43.00">
        <route edges="344063599 -344063599 1103002121#7 1103002121#11 1103002121#12 1103002121#16 1103002121#17 1103002121#19 382051984 382051979#0 244619759#0 738191563 711292218#0 1315578562#0 1102303676 263842503#0 83702045#0 1102303673#0 24045236#0 1028482925 26938113#0 26938113#1 44060596#0 44060596#5 -202799401#3 202799400 149851550#0 1028485897 96623197#3 96202375#0 96260465#0 559726779 389381851 -331405871"/>
    </vehicle>
    <vehicle id="44" depart="44.00">
        <route edges="-24878816#2 24878816#2 24878816#4 24878835 24878812#5 24878812#6 -22902384#4 -22902384#0 -381767864 -27016374 -711292219 -383605393#1 -383605393#0 -381767910#2 -381767910#1 -24686035#4 -24686035#0 -625858772#5 -625858772#2 -1125497298#4 -1125497300#1 -1125497300#0 -244619756#2 -711292218#3 -711292218#0 -738191563 84527866#0 166902376 166902373#0 382051995#0 166902370#0 1104927217#0 89968628#0 381988711#0 381988711#3 1104114334 382224391 24701143 24664933#0 24664802#0 24664802#1 757878224 594713494 594713493#0 37799907 1116618795#0"/>
    </vehicle>
    <vehicle id="45" depart="45.00">
        <route edges="24878816#10 -24878816#10 24878843 24878816#4 24878835 24878812#5 24878812#6 -22902384#4 -22902384#0 -381767864 -27016374 -711292219 -383605393#1 -383605393#0 -381767910#2 -381767910#1 -24686035#4 -24686035#0 -625858772#5 -625858772#2 -88215684#2 -88215685#3 -26938111#5 525684719#0 26938113#0 26938113#1 44060596#0 44060596#5 -202799401#3 202799400 149851550#0 1028485897 149785330#0"/>
    </vehicle>
    <vehicle id="46" depart="46.00">
        <route edges="387833218#0 84959406 -24574357#1 -387488093#3 -387830973#3 84526820#0 476707103 1119592515 520948066#0 393248508 393248511#0 375371401 313843749#0 366838964 388280785 377213302 23888931 388280781 385079851 388040068 594713490 1193630677 806076778#0 1175947978 646048871 1168540452-AddedOnRampEdge 1168540452 1237562881 1237562882 1237562883 24837124 1237562871 1237562873#0 382224337#0 382051979#0 244619759#0 738191563 711292218#0 1315578562#0 1102303676 263842503#0 24045262#0 73992062#3 -954093104 -24045260#2 -740008655#1"/>
    </vehicle>
    <vehicle id="47" depart="47.00">
        <route edges="163750669 91901888 24770314 28914434 1237548498 1237548495 69353464 1465424328 646048872 783015569#0 783015569#3 783015569#4 783015571 -806076778#1 1193630678 377213301 1119592518#0 1119592518#1 23019717 393248497#1 393248497#2 251421193#0 251421193#1 393878673#0 440710544 84526823#0 1119592517 387830973#0 387488093#0 -376941298#4 26206234#0 26206234#1 26206234#5 26206234#6"/>
    </vehicle>
    <vehicle id="48" depart="48.00">
        <route edges="1237548487 28914434 1237548498 1237548495 69353464 1465424328 646048872 783015569#0 783015569#3 783015569#4 783015571 -806076778#1 1193630678 377213301 1119592518#0 1119592518#1 23019717 393248497#1 393248497#2 251421193#0 251421193#1 393878673#0 440710544 84526823#0 1119592517 387830973#0 387488093#0 -376941298#4 26206234#0 26206234#1 26206234#5 26206234#6"/>
    </vehicle>
    <vehicle id="51" depart="51.00">
        <route edges="26175376 -149922997#3 -149922997#2 -149922997#1 -149922997#0 -565170381#2 -565170381#1 466424276#0 24046130#0 95787637#0 95787637#2 95787637#4 95787637#5 1065283774 -711292218#3 -711292218#0 -738191563 -244619759#1 -1104053946#5 -24045315#6 -24045737#2 713094112#0"/>
    </vehicle>
    <vehicle id="52" depart="52.00">
        <route edges="24878812#0 24878812#1 24878812#2 24878812#3 24878812#5 24878812#6 -22902384#4 -22902384#0 -381767864 381767862 525806379 383018950 525806373 27016369 1352921105 1352921103 642213851 246871761#0 27860272 27860295 1237548482 69353438 1237548496 1237548495 69353464 1465424328 646048872 783015569#0 783015569#3 783015569#4 783015571 -806076778#1 1193630678 377213301 1119592518#0 1119592518#1 23019717 393248497#1 393248497#2 251421193#0 251421193#1 393878673#0 440710544 84526771#0 1119592513 96202364#0 -1207256575 -223581247#7 223581247#7 1207256575 23019752#0"/>
    </vehicle>
    <vehicle id="53" depart="53.00">
        <route edges="-24046144#0 24046144#0 -24046156#3 -24046138 95787637#2 95787637#4 95787637#5 1065283774 -148565792 75600111#0 1102303676 263842503#0 83702045#0 1102303673#0 24045236#0 1028482925 26938113#0 26938113#1 44060596#0 44060596#5 -202799401#3 202799400 149851550#0 -149851546#5 -149851546#1 572324670 572324669 202799398 -96623204#7 -96623204#6 40638967#0 40638967#1"/>
    </vehicle>
    <vehicle id="54" depart="54.00">
        <route edges="-24045253#1 -44060596#4 1028482930 149785324#1 525684718 26938111#0 88215685#0 88215684#0 625858772#0 625858772#3 1093662048 24686035#1 381767910#0 381767910#2 381767910#3 383605393#1 711292219 525806379 383018950 525806373 27016369 1352921105 1352921103 642213851 246871761#0 27860272 27860295 1237548482 69353438 1237548496 1237548495 69353464 1465424328 1177070900 1165236029-AddedOnRampEdge 1165236029 1165236029-AddedOffRampEdge 483700624 1165236030#0 69353439#7 -1206243596#1 -1363898705#2 -684196244#3 -1206243595#1 -684134538#2"/>
    </vehicle>
    <vehicle id="55" depart="55.00">
        <route edges="25822399#0 25822399#1 25822399#3 25822399#4 25822399#6 25822399#7 313843749#0 366838964 388280785 377213302 23888931 23019727 1005662451#0 -388211543#1 -388006867#2 -96202384 -393878678#4 -1451933404 73204670 388211552#0 388211553 382499809 393878683#0 96623212#0 -1104403351 -382420761#2 -150258988#4 150258988#3"/>
    </vehicle>
    <vehicle id="56" depart="56.00">
        <route edges="-29979510 150258989#2 150258989#4 150258989#6 24045549#0 24045507#1 711840350 713094110 1030632083 381988748#0 -778410111 323564397#1 344063545#0 344063545#2 344063545#3 344063545#6"/>
    </vehicle>
    <vehicle id="57" depart="57.00">
        <route edges="26167441#0 27826100 95787637#4 95787637#5 1065283774 -148565792 75600111#0 1102303676 263842503#0 83702045#0 1102303673#0 -1028497053#2 24045012#0 24045012#6 71776682#0 389379325"/>
    </vehicle>
    <vehicle id="58" depart="58.00">
        <route edges="437970226#1 -437970226#1 -437970226#0 -24878808#1 -437971024#0 -22902384#0 -381767864 -27016374 -711292219 -383605393#1 -383605393#0 -381767910#2 -381767910#1 -24686035#4 -24686035#0 -625858772#5 -625858772#2 -1125497298#4 -1125497300#1 -1125497300#0 1104053955#0 -95787637#6 26167445#0 26167445#2 26167445#3 27826095#1 27826095#2 27826095#3 -27826077#2 -560106456#2 -26938388#2"/>
    </vehicle>
    <vehicle id="59" depart="59.00">
        <route edges="-25730227#3 -24045957#10 -382209863#4 -382209863#2 -382209863#1 24046130#0 95787637#0 95787637#2 95787637#4 95787637#5 1065283774 -711292218#3 -711292218#0 -738191563 -244619759#1 -1104053946#5 -24045315#6 -24045315#5 -24045315#0 -1005275220 -1005281732#1 1105062421 1105062422#0 1104403337 1125497293#0 382420760 23607999 388211552#0 1104403355#0 -369684092 -370069643 369587877 382492783 382492784 364160052 1028482958#0 1451933406 23025393#0 377211623 141242070 382489365 528939344 528942002 382489364"/>
    </vehicle>
    <vehicle id="60" depart="60.00">
        <route edges="-672774776#2 -1166180793#1 -780648219#1 780648218 780648217 780648224 213852874 777936458 194714701 194714678#4 199317384 194714675 194714681 460537472 743124793 646044308 1168540452-AddedOnRampEdge 1168540452 1237562881 1237562882 1237562883 24837124 1237562871 1237562873#0 382224337#0 382051979#0 244619759#0 738191563 711292218#0 1315578562#0 1102303676 263842503#0 24045262#0 73992062#3 -954093104 -24045260#2 -740008655#1"/>
    </vehicle>
    <vehicle id="61" depart="61.00">
        <route edges="34347392#3 24045356#4 24045356#6 -96623207#1 1105062421 1105062422#0 1104403337 1125497293#0 382420760 23019741 1451933404 393878678#0 96202384 388006867#0 1104403321#0 393248455#0 385079851 388040068 594713490 443202032 377213301 1119592518#0 1119592518#1 23019717 393248497#1 393248497#2 251421193#0 251421193#1 393878673#0 440710544 84526771#0 1119592513 96202364#0 -1207256575 -223581247#7 -223581247#6 -223581247#2 -223581247#1 -710708982#1"/>
    </vehicle>
    <vehicle id="62" depart="62.00">
        <route edges="-642213861#4 -642213861#3 -642213861#1 -24045356#0 -24045352#1 1104403351 96623206#0 1125497293#0 382420760 23019741 1451933404 393878678#0 96202384 388006867#0 1104403321#0 393248455#0 385079851 388040068 594713490 443202032 377213301 1119592518#0 1119592518#1 23019717 393248497#1 393248497#2 251421193#0 251421193#1 393878673#0 440710544 84526823#0 1119592517 387830973#0 387488093#0 -376941298#4 26206234#0 26206234#1 25379982#0 25379986"/>
    </vehicle>
    <vehicle id="63" depart="63.00">
        <route edges="-711431970 -150248335#2 69332115 528942002 382489364 711234496 23025438#0 24432289#0 370069654#0 96623189 23978162#1 23978162#3 382420761#0 1104403351 96623206#0 1125497295#0 -1105062422#3 -1105062421 711840351 -24045502#4 711840350 713094110 1030632083 381988748#0 -778410111 323564397#1"/>
    </vehicle>
    <vehicle id="64" depart="64.00">